<?xml version="1.0" encoding="UTF-8"?>

<!-- generated on 2022-08-27 01:17:43 by Eclipse SUMO netedit Version 1.13.0
<configuration xmlns:xsi="http://www.w3.org/2001/XMLSchema-instance" xsi:noNamespaceSchemaLocation="http://sumo.dlr.de/xsd/netconvertConfiguration.xsd">

    <input>
        <sumo-net-file value="D:\codes\tmp\dekai_intellisys_ws2021\gnn_theta\sumo\sumocfg\../map/simple_separate_10m.net.xml"/>
    </input>

    <output>
        <output-file value="D:\codes\tmp\dekai_intellisys_ws2021\gnn_theta\sumo\sumocfg\../map/simple_separate_10m.net.xml"/>
    </output>

    <processing>
        <geometry.min-radius.fix.railways value="false"/>
        <geometry.max-grade.fix value="false"/>
        <offset.disable-normalization value="true"/>
        <lefthand value="false"/>
    </processing>

    <junctions>
        <no-turnarounds value="true"/>
        <junctions.corner-detail value="5"/>
        <junctions.limit-turn-speed value="5.5"/>
        <rectangular-lane-cut value="false"/>
    </junctions>

    <pedestrian>
        <walkingareas value="false"/>
    </pedestrian>

    <report>
        <aggregate-warnings value="5"/>
    </report>

</configuration>
-->

<net version="1.9" junctionCornerDetail="5" limitTurnSpeed="5.50" xmlns:xsi="http://www.w3.org/2001/XMLSchema-instance" xsi:noNamespaceSchemaLocation="http://sumo.dlr.de/xsd/net_file.xsd">

    <location netOffset="0.00,0.00" convBoundary="-100.00,-100.00,100.00,100.00" origBoundary="-10000000000.00,-10000000000.00,10000000000.00,10000000000.00" projParameter="!"/>

    <edge id=":J0_0" function="internal">
        <lane id=":J0_0_0" index="0" speed="8.65" length="14.51" width="10.00" shape="-5.00,14.00 -5.56,10.06 -7.25,7.25 -10.06,5.56 -14.00,5.00"/>
    </edge>
    <edge id=":J0_1" function="internal">
        <lane id=":J0_1_0" index="0" speed="13.89" length="28.00" width="10.00" shape="-5.00,14.00 -5.00,-14.00"/>
    </edge>
    <edge id=":J0_2" function="internal">
        <lane id=":J0_2_0" index="0" speed="11.64" length="28.99" width="10.00" shape="-5.00,14.00 -3.28,7.28 1.17,1.17 7.28,-3.28 14.00,-5.00"/>
    </edge>
    <edge id=":J0_3" function="internal">
        <lane id=":J0_3_0" index="0" speed="8.65" length="14.51" width="10.00" shape="14.00,5.00 10.06,5.56 7.25,7.25 5.56,10.06 5.00,14.00"/>
    </edge>
    <edge id=":J0_4" function="internal">
        <lane id=":J0_4_0" index="0" speed="13.89" length="28.00" width="10.00" shape="14.00,5.00 -14.00,5.00"/>
    </edge>
    <edge id=":J0_5" function="internal">
        <lane id=":J0_5_0" index="0" speed="11.64" length="28.99" width="10.00" shape="14.00,5.00 7.28,3.28 1.17,-1.17 -3.28,-7.28 -5.00,-14.00"/>
    </edge>
    <edge id=":J0_6" function="internal">
        <lane id=":J0_6_0" index="0" speed="8.65" length="14.51" width="10.00" shape="5.00,-14.00 5.56,-10.06 7.25,-7.25 10.06,-5.56 14.00,-5.00"/>
    </edge>
    <edge id=":J0_7" function="internal">
        <lane id=":J0_7_0" index="0" speed="13.89" length="28.00" width="10.00" shape="5.00,-14.00 5.00,14.00"/>
    </edge>
    <edge id=":J0_8" function="internal">
        <lane id=":J0_8_0" index="0" speed="11.64" length="28.99" width="10.00" shape="5.00,-14.00 3.28,-7.28 -1.17,-1.17 -7.28,3.28 -14.00,5.00"/>
    </edge>
    <edge id=":J0_9" function="internal">
        <lane id=":J0_9_0" index="0" speed="8.65" length="14.51" width="10.00" shape="-14.00,-5.00 -10.06,-5.56 -7.25,-7.25 -5.56,-10.06 -5.00,-14.00"/>
    </edge>
    <edge id=":J0_10" function="internal">
        <lane id=":J0_10_0" index="0" speed="13.89" length="28.00" width="10.00" shape="-14.00,-5.00 14.00,-5.00"/>
    </edge>
    <edge id=":J0_11" function="internal">
        <lane id=":J0_11_0" index="0" speed="11.64" length="28.99" width="10.00" shape="-14.00,-5.00 -7.28,-3.28 -1.17,1.17 3.28,7.28 5.00,14.00"/>
    </edge>
    <edge id=":J1_0" function="internal">
        <lane id=":J1_0_0" index="0" speed="13.89" length="0.10" width="10.00" shape="-5.00,-40.00 -5.00,-40.00"/>
    </edge>
    <edge id=":J1_1" function="internal">
        <lane id=":J1_1_0" index="0" speed="13.89" length="0.10" width="10.00" shape="5.00,-40.00 5.00,-40.00"/>
    </edge>
    <edge id=":J2_0" function="internal">
        <lane id=":J2_0_0" index="0" speed="13.89" length="0.10" width="10.00" shape="-5.00,40.00 -5.00,40.00"/>
    </edge>
    <edge id=":J2_1" function="internal">
        <lane id=":J2_1_0" index="0" speed="13.89" length="0.10" width="10.00" shape="5.00,40.00 5.00,40.00"/>
    </edge>
    <edge id=":J3_0" function="internal">
        <lane id=":J3_0_0" index="0" speed="13.89" length="0.10" width="10.00" shape="-40.00,5.00 -40.00,5.00"/>
    </edge>
    <edge id=":J3_1" function="internal">
        <lane id=":J3_1_0" index="0" speed="13.89" length="0.10" width="10.00" shape="-40.00,-5.00 -40.00,-5.00"/>
    </edge>
    <edge id=":J4_0" function="internal">
        <lane id=":J4_0_0" index="0" speed="13.89" length="0.10" width="10.00" shape="40.00,5.00 40.00,5.00"/>
    </edge>
    <edge id=":J4_1" function="internal">
        <lane id=":J4_1_0" index="0" speed="13.89" length="0.10" width="10.00" shape="40.00,-5.00 40.00,-5.00"/>
    </edge>

    <edge id="-E0" from="J1" to="J0" priority="-1">
        <lane id="-E0_0" index="0" speed="13.89" length="26.00" width="10.00" shape="5.00,-40.00 5.00,-14.00"/>
    </edge>
    <edge id="-E1" from="J0" to="J2" priority="-1">
        <lane id="-E1_0" index="0" speed="13.89" length="26.00" width="10.00" shape="5.00,14.00 5.00,40.00"/>
    </edge>
    <edge id="-E2" from="J3" to="J0" priority="-1">
        <lane id="-E2_0" index="0" speed="13.89" length="26.00" width="10.00" shape="-40.00,-5.00 -14.00,-5.00"/>
    </edge>
    <edge id="-E3" from="J0" to="J4" priority="-1">
        <lane id="-E3_0" index="0" speed="13.89" length="26.00" width="10.00" shape="14.00,-5.00 40.00,-5.00"/>
    </edge>
    <edge id="-E4" from="J3" to="J5" priority="-1">
        <lane id="-E4_0" index="0" speed="13.89" length="60.00" width="10.00" shape="-40.00,5.00 -100.00,5.00"/>
    </edge>
    <edge id="-E5" from="J2" to="J6" priority="-1">
        <lane id="-E5_0" index="0" speed="13.89" length="60.00" width="10.00" shape="5.00,40.00 5.00,100.00"/>
    </edge>
    <edge id="-E6" from="J4" to="J7" priority="-1">
        <lane id="-E6_0" index="0" speed="13.89" length="60.00" width="10.00" shape="40.00,-5.00 100.00,-5.00"/>
    </edge>
    <edge id="-E7" from="J1" to="J8" priority="-1">
        <lane id="-E7_0" index="0" speed="13.89" length="60.00" width="10.00" shape="-5.00,-40.00 -5.00,-100.00"/>
    </edge>
    <edge id="E0" from="J0" to="J1" priority="-1">
        <lane id="E0_0" index="0" speed="13.89" length="26.00" width="10.00" shape="-5.00,-14.00 -5.00,-40.00"/>
    </edge>
    <edge id="E1" from="J2" to="J0" priority="-1">
        <lane id="E1_0" index="0" speed="13.89" length="26.00" width="10.00" shape="-5.00,40.00 -5.00,14.00"/>
    </edge>
    <edge id="E2" from="J0" to="J3" priority="-1">
        <lane id="E2_0" index="0" speed="13.89" length="26.00" width="10.00" shape="-14.00,5.00 -40.00,5.00"/>
    </edge>
    <edge id="E3" from="J4" to="J0" priority="-1">
        <lane id="E3_0" index="0" speed="13.89" length="26.00" width="10.00" shape="40.00,5.00 14.00,5.00"/>
    </edge>
    <edge id="E4" from="J5" to="J3" priority="-1">
        <lane id="E4_0" index="0" speed="13.89" length="60.00" width="10.00" shape="-100.00,-5.00 -40.00,-5.00"/>
    </edge>
    <edge id="E5" from="J6" to="J2" priority="-1">
        <lane id="E5_0" index="0" speed="13.89" length="60.00" width="10.00" shape="-5.00,100.00 -5.00,40.00"/>
    </edge>
    <edge id="E6" from="J7" to="J4" priority="-1">
        <lane id="E6_0" index="0" speed="13.89" length="60.00" width="10.00" shape="100.00,5.00 40.00,5.00"/>
    </edge>
    <edge id="E7" from="J8" to="J1" priority="-1">
        <lane id="E7_0" index="0" speed="13.89" length="60.00" width="10.00" shape="5.00,-100.00 5.00,-40.00"/>
    </edge>

    <junction id="J0" type="priority" x="0.00" y="0.00" incLanes="E1_0 E3_0 -E0_0 -E2_0" intLanes=":J0_0_0 :J0_1_0 :J0_2_0 :J0_3_0 :J0_4_0 :J0_5_0 :J0_6_0 :J0_7_0 :J0_8_0 :J0_9_0 :J0_10_0 :J0_11_0" shape="-10.00,14.00 10.00,14.00 10.44,11.78 11.00,11.00 11.78,10.44 12.78,10.11 14.00,10.00 14.00,-10.00 11.78,-10.44 11.00,-11.00 10.44,-11.78 10.11,-12.78 10.00,-14.00 -10.00,-14.00 -10.44,-11.78 -11.00,-11.00 -11.78,-10.44 -12.78,-10.11 -14.00,-10.00 -14.00,10.00 -11.78,10.44 -11.00,11.00 -10.44,11.78 -10.11,12.78">
        <request index="0"  response="000000000000" foes="000100010000" cont="0"/>
        <request index="1"  response="000000000000" foes="111100110000" cont="0"/>
        <request index="2"  response="000011000000" foes="110111110000" cont="0"/>
        <request index="3"  response="000010000000" foes="100010000000" cont="0"/>
        <request index="4"  response="000110000111" foes="100110000111" cont="0"/>
        <request index="5"  response="011110000110" foes="111110000110" cont="0"/>
        <request index="6"  response="000000000000" foes="010000000100" cont="0"/>
        <request index="7"  response="000000000000" foes="110000111100" cont="0"/>
        <request index="8"  response="000000000111" foes="110000110111" cont="0"/>
        <request index="9"  response="000000000010" foes="000000100010" cont="0"/>
        <request index="10" response="000111000110" foes="000111100110" cont="0"/>
        <request index="11" response="000110111110" foes="000110111110" cont="0"/>
    </junction>
    <junction id="J1" type="priority" x="0.00" y="-40.00" incLanes="E0_0 E7_0" intLanes=":J1_0_0 :J1_1_0" shape="-10.00,-40.00 10.00,-40.00 -10.00,-40.00">
        <request index="0" response="00" foes="00" cont="0"/>
        <request index="1" response="00" foes="00" cont="0"/>
    </junction>
    <junction id="J2" type="priority" x="0.00" y="40.00" incLanes="E5_0 -E1_0" intLanes=":J2_0_0 :J2_1_0" shape="-10.00,40.00 10.00,40.00 -10.00,40.00">
        <request index="0" response="00" foes="00" cont="0"/>
        <request index="1" response="00" foes="00" cont="0"/>
    </junction>
    <junction id="J3" type="priority" x="-40.00" y="0.00" incLanes="E2_0 E4_0" intLanes=":J3_0_0 :J3_1_0" shape="-40.00,10.00 -40.00,-10.00 -40.00,10.00">
        <request index="0" response="00" foes="00" cont="0"/>
        <request index="1" response="00" foes="00" cont="0"/>
    </junction>
    <junction id="J4" type="priority" x="40.00" y="0.00" incLanes="E6_0 -E3_0" intLanes=":J4_0_0 :J4_1_0" shape="40.00,10.00 40.00,-10.00 40.00,10.00">
        <request index="0" response="00" foes="00" cont="0"/>
        <request index="1" response="00" foes="00" cont="0"/>
    </junction>
    <junction id="J5" type="dead_end" x="-100.00" y="0.00" incLanes="-E4_0" intLanes="" shape="-100.00,0.00 -100.00,10.00 -100.00,0.00"/>
    <junction id="J6" type="dead_end" x="0.00" y="100.00" incLanes="-E5_0" intLanes="" shape="0.00,100.00 10.00,100.00 0.00,100.00"/>
    <junction id="J7" type="dead_end" x="100.00" y="0.00" incLanes="-E6_0" intLanes="" shape="100.00,0.00 100.00,-10.00 100.00,0.00"/>
    <junction id="J8" type="dead_end" x="0.00" y="-100.00" incLanes="-E7_0" intLanes="" shape="0.00,-100.00 -10.00,-100.00 0.00,-100.00"/>

    <connection from="-E0" to="-E3" fromLane="0" toLane="0" via=":J0_6_0" dir="r" state="M"/>
    <connection from="-E0" to="-E1" fromLane="0" toLane="0" via=":J0_7_0" dir="s" state="M"/>
    <connection from="-E0" to="E2" fromLane="0" toLane="0" contPos="0.00" via=":J0_8_0" dir="l" state="m"/>
    <connection from="-E1" to="-E5" fromLane="0" toLane="0" via=":J2_1_0" dir="s" state="M"/>
    <connection from="-E2" to="E0" fromLane="0" toLane="0" via=":J0_9_0" dir="r" state="m"/>
    <connection from="-E2" to="-E3" fromLane="0" toLane="0" via=":J0_10_0" dir="s" state="m"/>
    <connection from="-E2" to="-E1" fromLane="0" toLane="0" via=":J0_11_0" dir="l" state="m"/>
    <connection from="-E3" to="-E6" fromLane="0" toLane="0" via=":J4_1_0" dir="s" state="M"/>
    <connection from="E0" to="-E7" fromLane="0" toLane="0" via=":J1_0_0" dir="s" state="M"/>
    <connection from="E1" to="E2" fromLane="0" toLane="0" via=":J0_0_0" dir="r" state="M"/>
    <connection from="E1" to="E0" fromLane="0" toLane="0" via=":J0_1_0" dir="s" state="M"/>
    <connection from="E1" to="-E3" fromLane="0" toLane="0" contPos="0.00" via=":J0_2_0" dir="l" state="m"/>
    <connection from="E2" to="-E4" fromLane="0" toLane="0" via=":J3_0_0" dir="s" state="M"/>
    <connection from="E3" to="-E1" fromLane="0" toLane="0" via=":J0_3_0" dir="r" state="m"/>
    <connection from="E3" to="E2" fromLane="0" toLane="0" via=":J0_4_0" dir="s" state="m"/>
    <connection from="E3" to="E0" fromLane="0" toLane="0" via=":J0_5_0" dir="l" state="m"/>
    <connection from="E4" to="-E2" fromLane="0" toLane="0" via=":J3_1_0" dir="s" state="M"/>
    <connection from="E5" to="E1" fromLane="0" toLane="0" via=":J2_0_0" dir="s" state="M"/>
    <connection from="E6" to="E3" fromLane="0" toLane="0" via=":J4_0_0" dir="s" state="M"/>
    <connection from="E7" to="-E0" fromLane="0" toLane="0" via=":J1_1_0" dir="s" state="M"/>

    <connection from=":J0_0" to="E2" fromLane="0" toLane="0" dir="r" state="M"/>
    <connection from=":J0_1" to="E0" fromLane="0" toLane="0" dir="s" state="M"/>
    <connection from=":J0_2" to="-E3" fromLane="0" toLane="0" dir="l" state="M"/>
    <connection from=":J0_3" to="-E1" fromLane="0" toLane="0" dir="r" state="M"/>
    <connection from=":J0_4" to="E2" fromLane="0" toLane="0" dir="s" state="M"/>
    <connection from=":J0_5" to="E0" fromLane="0" toLane="0" dir="l" state="M"/>
    <connection from=":J0_6" to="-E3" fromLane="0" toLane="0" dir="r" state="M"/>
    <connection from=":J0_7" to="-E1" fromLane="0" toLane="0" dir="s" state="M"/>
    <connection from=":J0_8" to="E2" fromLane="0" toLane="0" dir="l" state="M"/>
    <connection from=":J0_9" to="E0" fromLane="0" toLane="0" dir="r" state="M"/>
    <connection from=":J0_10" to="-E3" fromLane="0" toLane="0" dir="s" state="M"/>
    <connection from=":J0_11" to="-E1" fromLane="0" toLane="0" dir="l" state="M"/>
    <connection from=":J1_0" to="-E7" fromLane="0" toLane="0" dir="s" state="M"/>
    <connection from=":J1_1" to="-E0" fromLane="0" toLane="0" dir="s" state="M"/>
    <connection from=":J2_0" to="E1" fromLane="0" toLane="0" dir="s" state="M"/>
    <connection from=":J2_1" to="-E5" fromLane="0" toLane="0" dir="s" state="M"/>
    <connection from=":J3_0" to="-E4" fromLane="0" toLane="0" dir="s" state="M"/>
    <connection from=":J3_1" to="-E2" fromLane="0" toLane="0" dir="s" state="M"/>
    <connection from=":J4_0" to="E3" fromLane="0" toLane="0" dir="s" state="M"/>
    <connection from=":J4_1" to="-E6" fromLane="0" toLane="0" dir="s" state="M"/>

</net>
