<routes>
        <vType id="vehicle.seat.leon" accel="2.5" decel="4.5" sigma="0.5" length="5" minGap="2.5" maxSpeed="40" guiShape="passenger"/>

        <route id="left_up" edges="E4 -E2 -E1 -E5"/>
        <route id="left_right" edges="E4 -E2 -E3 -E6"/>
        <route id="left_down" edges="E4 -E2 E0 -E7"/>

        <route id="right_up" edges="E6 E3 -E1 -E5"/>
        <route id="right_left" edges="E6 E3 E2 -E4"/>
        <route id="right_down" edges="E6 E3 E0 -E7"/>

        <route id="down_up" edges="E7 -E0 -E1 -E5"/>
        <route id="down_left" edges="E7 -E0 E2 -E4"/>
        <route id="down_right" edges="E7 -E0 -E3 -E6"/>

        <route id="up_down" edges="E5 E1 E0 -E7"/>
        <route id="up_left" edges="E5 E1 E2 -E4"/>
        <route id="up_right" edges="E5 E1 -E3 -E6"/>
    <vehicle id="up_right_0" type="vehicle.seat.leon" route="up_right" depart="1" />
    <vehicle id="down_left_1" type="vehicle.seat.leon" route="down_left" depart="1" />
    <vehicle id="down_right_2" type="vehicle.seat.leon" route="down_right" depart="4" />
    <vehicle id="up_down_3" type="vehicle.seat.leon" route="up_down" depart="7" />
    <vehicle id="left_up_4" type="vehicle.seat.leon" route="left_up" depart="13" />
    <vehicle id="right_down_5" type="vehicle.seat.leon" route="right_down" depart="18" />
    <vehicle id="left_up_6" type="vehicle.seat.leon" route="left_up" depart="25" />
    <vehicle id="up_down_7" type="vehicle.seat.leon" route="up_down" depart="29" />
    <vehicle id="up_down_8" type="vehicle.seat.leon" route="up_down" depart="30" />
    <vehicle id="right_up_9" type="vehicle.seat.leon" route="right_up" depart="31" />
    <vehicle id="up_left_10" type="vehicle.seat.leon" route="up_left" depart="35" />
    <vehicle id="up_right_11" type="vehicle.seat.leon" route="up_right" depart="36" />
    <vehicle id="down_up_12" type="vehicle.seat.leon" route="down_up" depart="41" />
    <vehicle id="up_left_13" type="vehicle.seat.leon" route="up_left" depart="53" />
    <vehicle id="down_left_14" type="vehicle.seat.leon" route="down_left" depart="59" />
    <vehicle id="right_up_15" type="vehicle.seat.leon" route="right_up" depart="60" />
    <vehicle id="down_left_16" type="vehicle.seat.leon" route="down_left" depart="75" />
    <vehicle id="right_left_17" type="vehicle.seat.leon" route="right_left" depart="76" />
    <vehicle id="up_left_18" type="vehicle.seat.leon" route="up_left" depart="78" />
    <vehicle id="up_right_19" type="vehicle.seat.leon" route="up_right" depart="81" />
    <vehicle id="up_left_20" type="vehicle.seat.leon" route="up_left" depart="83" />
    <vehicle id="up_down_21" type="vehicle.seat.leon" route="up_down" depart="88" />
    <vehicle id="down_right_22" type="vehicle.seat.leon" route="down_right" depart="88" />
    <vehicle id="down_up_23" type="vehicle.seat.leon" route="down_up" depart="93" />
    <vehicle id="up_down_24" type="vehicle.seat.leon" route="up_down" depart="99" />
    <vehicle id="down_up_25" type="vehicle.seat.leon" route="down_up" depart="100" />
    <vehicle id="up_down_26" type="vehicle.seat.leon" route="up_down" depart="101" />
    <vehicle id="right_up_27" type="vehicle.seat.leon" route="right_up" depart="105" />
    <vehicle id="right_left_28" type="vehicle.seat.leon" route="right_left" depart="109" />
    <vehicle id="up_left_29" type="vehicle.seat.leon" route="up_left" depart="111" />
    <vehicle id="down_right_30" type="vehicle.seat.leon" route="down_right" depart="112" />
    <vehicle id="left_right_31" type="vehicle.seat.leon" route="left_right" depart="118" />
    <vehicle id="up_right_32" type="vehicle.seat.leon" route="up_right" depart="121" />
    <vehicle id="up_down_33" type="vehicle.seat.leon" route="up_down" depart="126" />
    <vehicle id="up_left_34" type="vehicle.seat.leon" route="up_left" depart="128" />
    <vehicle id="left_right_35" type="vehicle.seat.leon" route="left_right" depart="132" />
    <vehicle id="right_up_36" type="vehicle.seat.leon" route="right_up" depart="136" />
    <vehicle id="up_left_37" type="vehicle.seat.leon" route="up_left" depart="137" />
    <vehicle id="up_down_38" type="vehicle.seat.leon" route="up_down" depart="146" />
    <vehicle id="left_right_39" type="vehicle.seat.leon" route="left_right" depart="150" />
    <vehicle id="right_left_40" type="vehicle.seat.leon" route="right_left" depart="151" />
    <vehicle id="right_up_41" type="vehicle.seat.leon" route="right_up" depart="155" />
    <vehicle id="down_left_42" type="vehicle.seat.leon" route="down_left" depart="157" />
    <vehicle id="left_right_43" type="vehicle.seat.leon" route="left_right" depart="159" />
    <vehicle id="down_left_44" type="vehicle.seat.leon" route="down_left" depart="161" />
    <vehicle id="up_down_45" type="vehicle.seat.leon" route="up_down" depart="163" />
    <vehicle id="up_down_46" type="vehicle.seat.leon" route="up_down" depart="170" />
    <vehicle id="left_up_47" type="vehicle.seat.leon" route="left_up" depart="173" />
    <vehicle id="right_left_48" type="vehicle.seat.leon" route="right_left" depart="174" />
    <vehicle id="down_left_49" type="vehicle.seat.leon" route="down_left" depart="176" />
    <vehicle id="right_down_50" type="vehicle.seat.leon" route="right_down" depart="178" />
    <vehicle id="left_right_51" type="vehicle.seat.leon" route="left_right" depart="179" />
    <vehicle id="up_left_52" type="vehicle.seat.leon" route="up_left" depart="182" />
    <vehicle id="up_down_53" type="vehicle.seat.leon" route="up_down" depart="183" />
    <vehicle id="up_right_54" type="vehicle.seat.leon" route="up_right" depart="189" />
    <vehicle id="right_left_55" type="vehicle.seat.leon" route="right_left" depart="200" />
    <vehicle id="left_right_56" type="vehicle.seat.leon" route="left_right" depart="206" />
    <vehicle id="down_up_57" type="vehicle.seat.leon" route="down_up" depart="207" />
    <vehicle id="left_down_58" type="vehicle.seat.leon" route="left_down" depart="213" />
    <vehicle id="down_left_59" type="vehicle.seat.leon" route="down_left" depart="214" />
    <vehicle id="down_right_60" type="vehicle.seat.leon" route="down_right" depart="219" />
    <vehicle id="down_left_61" type="vehicle.seat.leon" route="down_left" depart="224" />
    <vehicle id="right_up_62" type="vehicle.seat.leon" route="right_up" depart="225" />
    <vehicle id="right_down_63" type="vehicle.seat.leon" route="right_down" depart="228" />
    <vehicle id="down_left_64" type="vehicle.seat.leon" route="down_left" depart="231" />
    <vehicle id="left_up_65" type="vehicle.seat.leon" route="left_up" depart="233" />
    <vehicle id="up_down_66" type="vehicle.seat.leon" route="up_down" depart="240" />
    <vehicle id="up_left_67" type="vehicle.seat.leon" route="up_left" depart="247" />
    <vehicle id="right_left_68" type="vehicle.seat.leon" route="right_left" depart="249" />
    <vehicle id="up_down_69" type="vehicle.seat.leon" route="up_down" depart="251" />
    <vehicle id="up_right_70" type="vehicle.seat.leon" route="up_right" depart="256" />
    <vehicle id="down_left_71" type="vehicle.seat.leon" route="down_left" depart="258" />
    <vehicle id="up_left_72" type="vehicle.seat.leon" route="up_left" depart="259" />
    <vehicle id="down_left_73" type="vehicle.seat.leon" route="down_left" depart="259" />
    <vehicle id="up_left_74" type="vehicle.seat.leon" route="up_left" depart="262" />
    <vehicle id="right_up_75" type="vehicle.seat.leon" route="right_up" depart="263" />
    <vehicle id="right_left_76" type="vehicle.seat.leon" route="right_left" depart="265" />
    <vehicle id="left_right_77" type="vehicle.seat.leon" route="left_right" depart="269" />
    <vehicle id="down_up_78" type="vehicle.seat.leon" route="down_up" depart="275" />
    <vehicle id="down_up_79" type="vehicle.seat.leon" route="down_up" depart="276" />
    <vehicle id="up_left_80" type="vehicle.seat.leon" route="up_left" depart="279" />
    <vehicle id="left_down_81" type="vehicle.seat.leon" route="left_down" depart="281" />
    <vehicle id="left_right_82" type="vehicle.seat.leon" route="left_right" depart="284" />
    <vehicle id="right_down_83" type="vehicle.seat.leon" route="right_down" depart="286" />
    <vehicle id="left_right_84" type="vehicle.seat.leon" route="left_right" depart="289" />
    <vehicle id="down_left_85" type="vehicle.seat.leon" route="down_left" depart="289" />
    <vehicle id="right_left_86" type="vehicle.seat.leon" route="right_left" depart="296" />
    <vehicle id="up_down_87" type="vehicle.seat.leon" route="up_down" depart="309" />
    <vehicle id="up_right_88" type="vehicle.seat.leon" route="up_right" depart="320" />
    <vehicle id="down_left_89" type="vehicle.seat.leon" route="down_left" depart="326" />
    <vehicle id="left_down_90" type="vehicle.seat.leon" route="left_down" depart="336" />
    <vehicle id="down_right_91" type="vehicle.seat.leon" route="down_right" depart="338" />
    <vehicle id="right_left_92" type="vehicle.seat.leon" route="right_left" depart="340" />
    <vehicle id="down_right_93" type="vehicle.seat.leon" route="down_right" depart="349" />
    <vehicle id="down_left_94" type="vehicle.seat.leon" route="down_left" depart="351" />
    <vehicle id="right_down_95" type="vehicle.seat.leon" route="right_down" depart="352" />
    <vehicle id="right_up_96" type="vehicle.seat.leon" route="right_up" depart="354" />
    <vehicle id="right_up_97" type="vehicle.seat.leon" route="right_up" depart="361" />
    <vehicle id="left_right_98" type="vehicle.seat.leon" route="left_right" depart="362" />
    <vehicle id="right_left_99" type="vehicle.seat.leon" route="right_left" depart="362" />
    <vehicle id="down_right_100" type="vehicle.seat.leon" route="down_right" depart="366" />
    <vehicle id="right_down_101" type="vehicle.seat.leon" route="right_down" depart="370" />
    <vehicle id="up_down_102" type="vehicle.seat.leon" route="up_down" depart="370" />
    <vehicle id="down_up_103" type="vehicle.seat.leon" route="down_up" depart="371" />
    <vehicle id="right_left_104" type="vehicle.seat.leon" route="right_left" depart="374" />
    <vehicle id="left_down_105" type="vehicle.seat.leon" route="left_down" depart="376" />
    <vehicle id="left_down_106" type="vehicle.seat.leon" route="left_down" depart="377" />
    <vehicle id="left_right_107" type="vehicle.seat.leon" route="left_right" depart="380" />
    <vehicle id="down_up_108" type="vehicle.seat.leon" route="down_up" depart="380" />
    <vehicle id="down_up_109" type="vehicle.seat.leon" route="down_up" depart="390" />
    <vehicle id="left_down_110" type="vehicle.seat.leon" route="left_down" depart="392" />
    <vehicle id="left_down_111" type="vehicle.seat.leon" route="left_down" depart="403" />
    <vehicle id="right_left_112" type="vehicle.seat.leon" route="right_left" depart="405" />
    <vehicle id="up_down_113" type="vehicle.seat.leon" route="up_down" depart="408" />
    <vehicle id="right_down_114" type="vehicle.seat.leon" route="right_down" depart="409" />
    <vehicle id="up_right_115" type="vehicle.seat.leon" route="up_right" depart="410" />
    <vehicle id="right_left_116" type="vehicle.seat.leon" route="right_left" depart="414" />
    <vehicle id="up_left_117" type="vehicle.seat.leon" route="up_left" depart="415" />
    <vehicle id="up_down_118" type="vehicle.seat.leon" route="up_down" depart="416" />
    <vehicle id="up_left_119" type="vehicle.seat.leon" route="up_left" depart="420" />
    <vehicle id="left_down_120" type="vehicle.seat.leon" route="left_down" depart="421" />
    <vehicle id="up_left_121" type="vehicle.seat.leon" route="up_left" depart="425" />
    <vehicle id="up_left_122" type="vehicle.seat.leon" route="up_left" depart="429" />
    <vehicle id="left_down_123" type="vehicle.seat.leon" route="left_down" depart="434" />
    <vehicle id="down_right_124" type="vehicle.seat.leon" route="down_right" depart="434" />
    <vehicle id="down_up_125" type="vehicle.seat.leon" route="down_up" depart="437" />
    <vehicle id="right_up_126" type="vehicle.seat.leon" route="right_up" depart="441" />
    <vehicle id="up_left_127" type="vehicle.seat.leon" route="up_left" depart="442" />
    <vehicle id="left_up_128" type="vehicle.seat.leon" route="left_up" depart="445" />
    <vehicle id="down_right_129" type="vehicle.seat.leon" route="down_right" depart="447" />
    <vehicle id="right_up_130" type="vehicle.seat.leon" route="right_up" depart="449" />
    <vehicle id="down_up_131" type="vehicle.seat.leon" route="down_up" depart="450" />
    <vehicle id="up_right_132" type="vehicle.seat.leon" route="up_right" depart="451" />
    <vehicle id="right_left_133" type="vehicle.seat.leon" route="right_left" depart="453" />
    <vehicle id="left_right_134" type="vehicle.seat.leon" route="left_right" depart="464" />
    <vehicle id="left_up_135" type="vehicle.seat.leon" route="left_up" depart="466" />
    <vehicle id="up_down_136" type="vehicle.seat.leon" route="up_down" depart="477" />
    <vehicle id="down_up_137" type="vehicle.seat.leon" route="down_up" depart="480" />
    <vehicle id="down_right_138" type="vehicle.seat.leon" route="down_right" depart="486" />
    <vehicle id="down_up_139" type="vehicle.seat.leon" route="down_up" depart="495" />
    <vehicle id="right_down_140" type="vehicle.seat.leon" route="right_down" depart="509" />
    <vehicle id="right_left_141" type="vehicle.seat.leon" route="right_left" depart="510" />
    <vehicle id="right_up_142" type="vehicle.seat.leon" route="right_up" depart="516" />
    <vehicle id="right_up_143" type="vehicle.seat.leon" route="right_up" depart="519" />
    <vehicle id="down_right_144" type="vehicle.seat.leon" route="down_right" depart="520" />
    <vehicle id="left_up_145" type="vehicle.seat.leon" route="left_up" depart="530" />
    <vehicle id="down_up_146" type="vehicle.seat.leon" route="down_up" depart="542" />
    <vehicle id="down_left_147" type="vehicle.seat.leon" route="down_left" depart="545" />
    <vehicle id="up_down_148" type="vehicle.seat.leon" route="up_down" depart="549" />
    <vehicle id="down_up_149" type="vehicle.seat.leon" route="down_up" depart="550" />
    <vehicle id="right_up_150" type="vehicle.seat.leon" route="right_up" depart="553" />
    <vehicle id="left_down_151" type="vehicle.seat.leon" route="left_down" depart="554" />
    <vehicle id="up_down_152" type="vehicle.seat.leon" route="up_down" depart="554" />
    <vehicle id="down_left_153" type="vehicle.seat.leon" route="down_left" depart="559" />
    <vehicle id="right_up_154" type="vehicle.seat.leon" route="right_up" depart="561" />
    <vehicle id="down_up_155" type="vehicle.seat.leon" route="down_up" depart="573" />
    <vehicle id="down_right_156" type="vehicle.seat.leon" route="down_right" depart="576" />
    <vehicle id="down_right_157" type="vehicle.seat.leon" route="down_right" depart="578" />
    <vehicle id="down_left_158" type="vehicle.seat.leon" route="down_left" depart="583" />
    <vehicle id="left_up_159" type="vehicle.seat.leon" route="left_up" depart="588" />
    <vehicle id="down_right_160" type="vehicle.seat.leon" route="down_right" depart="588" />
    <vehicle id="down_up_161" type="vehicle.seat.leon" route="down_up" depart="598" />
    <vehicle id="down_left_162" type="vehicle.seat.leon" route="down_left" depart="605" />
    <vehicle id="up_down_163" type="vehicle.seat.leon" route="up_down" depart="610" />
    <vehicle id="left_up_164" type="vehicle.seat.leon" route="left_up" depart="611" />
    <vehicle id="up_right_165" type="vehicle.seat.leon" route="up_right" depart="616" />
    <vehicle id="down_up_166" type="vehicle.seat.leon" route="down_up" depart="619" />
    <vehicle id="left_right_167" type="vehicle.seat.leon" route="left_right" depart="623" />
    <vehicle id="right_left_168" type="vehicle.seat.leon" route="right_left" depart="624" />
    <vehicle id="down_up_169" type="vehicle.seat.leon" route="down_up" depart="626" />
    <vehicle id="down_up_170" type="vehicle.seat.leon" route="down_up" depart="627" />
    <vehicle id="right_down_171" type="vehicle.seat.leon" route="right_down" depart="629" />
    <vehicle id="down_left_172" type="vehicle.seat.leon" route="down_left" depart="629" />
    <vehicle id="right_left_173" type="vehicle.seat.leon" route="right_left" depart="630" />
    <vehicle id="down_left_174" type="vehicle.seat.leon" route="down_left" depart="632" />
    <vehicle id="down_up_175" type="vehicle.seat.leon" route="down_up" depart="637" />
    <vehicle id="left_down_176" type="vehicle.seat.leon" route="left_down" depart="640" />
    <vehicle id="up_down_177" type="vehicle.seat.leon" route="up_down" depart="641" />
    <vehicle id="up_down_178" type="vehicle.seat.leon" route="up_down" depart="643" />
    <vehicle id="up_down_179" type="vehicle.seat.leon" route="up_down" depart="646" />
    <vehicle id="down_right_180" type="vehicle.seat.leon" route="down_right" depart="649" />
    <vehicle id="down_left_181" type="vehicle.seat.leon" route="down_left" depart="653" />
    <vehicle id="left_up_182" type="vehicle.seat.leon" route="left_up" depart="654" />
    <vehicle id="up_left_183" type="vehicle.seat.leon" route="up_left" depart="655" />
    <vehicle id="down_left_184" type="vehicle.seat.leon" route="down_left" depart="663" />
    <vehicle id="down_up_185" type="vehicle.seat.leon" route="down_up" depart="665" />
    <vehicle id="down_right_186" type="vehicle.seat.leon" route="down_right" depart="668" />
    <vehicle id="down_left_187" type="vehicle.seat.leon" route="down_left" depart="671" />
    <vehicle id="up_right_188" type="vehicle.seat.leon" route="up_right" depart="672" />
    <vehicle id="left_right_189" type="vehicle.seat.leon" route="left_right" depart="683" />
    <vehicle id="up_left_190" type="vehicle.seat.leon" route="up_left" depart="683" />
    <vehicle id="up_down_191" type="vehicle.seat.leon" route="up_down" depart="686" />
    <vehicle id="right_down_192" type="vehicle.seat.leon" route="right_down" depart="687" />
    <vehicle id="right_up_193" type="vehicle.seat.leon" route="right_up" depart="688" />
    <vehicle id="up_right_194" type="vehicle.seat.leon" route="up_right" depart="694" />
    <vehicle id="up_right_195" type="vehicle.seat.leon" route="up_right" depart="695" />
    <vehicle id="down_left_196" type="vehicle.seat.leon" route="down_left" depart="699" />
    <vehicle id="up_right_197" type="vehicle.seat.leon" route="up_right" depart="702" />
    <vehicle id="left_down_198" type="vehicle.seat.leon" route="left_down" depart="704" />
    <vehicle id="left_right_199" type="vehicle.seat.leon" route="left_right" depart="721" />
    <vehicle id="up_down_200" type="vehicle.seat.leon" route="up_down" depart="721" />
    <vehicle id="right_down_201" type="vehicle.seat.leon" route="right_down" depart="731" />
    <vehicle id="down_left_202" type="vehicle.seat.leon" route="down_left" depart="734" />
    <vehicle id="down_left_203" type="vehicle.seat.leon" route="down_left" depart="737" />
    <vehicle id="up_right_204" type="vehicle.seat.leon" route="up_right" depart="738" />
    <vehicle id="down_right_205" type="vehicle.seat.leon" route="down_right" depart="740" />
    <vehicle id="down_left_206" type="vehicle.seat.leon" route="down_left" depart="744" />
    <vehicle id="down_left_207" type="vehicle.seat.leon" route="down_left" depart="758" />
    <vehicle id="left_down_208" type="vehicle.seat.leon" route="left_down" depart="759" />
    <vehicle id="up_down_209" type="vehicle.seat.leon" route="up_down" depart="762" />
    <vehicle id="down_left_210" type="vehicle.seat.leon" route="down_left" depart="770" />
    <vehicle id="down_left_211" type="vehicle.seat.leon" route="down_left" depart="775" />
    <vehicle id="up_left_212" type="vehicle.seat.leon" route="up_left" depart="784" />
    <vehicle id="down_up_213" type="vehicle.seat.leon" route="down_up" depart="786" />
    <vehicle id="right_down_214" type="vehicle.seat.leon" route="right_down" depart="790" />
    <vehicle id="left_down_215" type="vehicle.seat.leon" route="left_down" depart="792" />
    <vehicle id="left_up_216" type="vehicle.seat.leon" route="left_up" depart="811" />
    <vehicle id="right_left_217" type="vehicle.seat.leon" route="right_left" depart="811" />
    <vehicle id="left_down_218" type="vehicle.seat.leon" route="left_down" depart="816" />
    <vehicle id="up_down_219" type="vehicle.seat.leon" route="up_down" depart="820" />
    <vehicle id="up_left_220" type="vehicle.seat.leon" route="up_left" depart="827" />
    <vehicle id="up_down_221" type="vehicle.seat.leon" route="up_down" depart="829" />
    <vehicle id="down_up_222" type="vehicle.seat.leon" route="down_up" depart="838" />
    <vehicle id="left_down_223" type="vehicle.seat.leon" route="left_down" depart="848" />
    <vehicle id="left_up_224" type="vehicle.seat.leon" route="left_up" depart="867" />
    <vehicle id="down_left_225" type="vehicle.seat.leon" route="down_left" depart="867" />
    <vehicle id="up_left_226" type="vehicle.seat.leon" route="up_left" depart="868" />
    <vehicle id="down_right_227" type="vehicle.seat.leon" route="down_right" depart="871" />
    <vehicle id="left_up_228" type="vehicle.seat.leon" route="left_up" depart="872" />
    <vehicle id="right_up_229" type="vehicle.seat.leon" route="right_up" depart="883" />
    <vehicle id="up_down_230" type="vehicle.seat.leon" route="up_down" depart="885" />
    <vehicle id="down_right_231" type="vehicle.seat.leon" route="down_right" depart="890" />
    <vehicle id="right_left_232" type="vehicle.seat.leon" route="right_left" depart="893" />
    <vehicle id="left_down_233" type="vehicle.seat.leon" route="left_down" depart="894" />
    <vehicle id="down_right_234" type="vehicle.seat.leon" route="down_right" depart="894" />
    <vehicle id="up_right_235" type="vehicle.seat.leon" route="up_right" depart="900" />
    <vehicle id="up_down_236" type="vehicle.seat.leon" route="up_down" depart="905" />
    <vehicle id="right_left_237" type="vehicle.seat.leon" route="right_left" depart="906" />
    <vehicle id="down_right_238" type="vehicle.seat.leon" route="down_right" depart="908" />
    <vehicle id="down_right_239" type="vehicle.seat.leon" route="down_right" depart="911" />
    <vehicle id="up_down_240" type="vehicle.seat.leon" route="up_down" depart="913" />
    <vehicle id="up_left_241" type="vehicle.seat.leon" route="up_left" depart="914" />
    <vehicle id="down_right_242" type="vehicle.seat.leon" route="down_right" depart="914" />
    <vehicle id="up_down_243" type="vehicle.seat.leon" route="up_down" depart="920" />
    <vehicle id="right_down_244" type="vehicle.seat.leon" route="right_down" depart="924" />
    <vehicle id="right_left_245" type="vehicle.seat.leon" route="right_left" depart="930" />
    <vehicle id="up_down_246" type="vehicle.seat.leon" route="up_down" depart="937" />
    <vehicle id="right_down_247" type="vehicle.seat.leon" route="right_down" depart="940" />
    <vehicle id="down_up_248" type="vehicle.seat.leon" route="down_up" depart="942" />
    <vehicle id="left_right_249" type="vehicle.seat.leon" route="left_right" depart="943" />
    <vehicle id="down_right_250" type="vehicle.seat.leon" route="down_right" depart="947" />
    <vehicle id="right_left_251" type="vehicle.seat.leon" route="right_left" depart="949" />
    <vehicle id="left_down_252" type="vehicle.seat.leon" route="left_down" depart="953" />
    <vehicle id="left_up_253" type="vehicle.seat.leon" route="left_up" depart="960" />
    <vehicle id="right_down_254" type="vehicle.seat.leon" route="right_down" depart="971" />
    <vehicle id="down_left_255" type="vehicle.seat.leon" route="down_left" depart="971" />
    <vehicle id="down_left_256" type="vehicle.seat.leon" route="down_left" depart="976" />
    <vehicle id="down_right_257" type="vehicle.seat.leon" route="down_right" depart="978" />
    <vehicle id="up_down_258" type="vehicle.seat.leon" route="up_down" depart="983" />
    <vehicle id="right_down_259" type="vehicle.seat.leon" route="right_down" depart="984" />
    <vehicle id="down_up_260" type="vehicle.seat.leon" route="down_up" depart="987" />
    <vehicle id="down_right_261" type="vehicle.seat.leon" route="down_right" depart="990" />
    <vehicle id="right_left_262" type="vehicle.seat.leon" route="right_left" depart="991" />
    <vehicle id="down_left_263" type="vehicle.seat.leon" route="down_left" depart="999" />
</routes>
