<routes>
        <vType id="vehicle.seat.leon" accel="2.5" decel="4.5" sigma="0.5" length="5" minGap="2.5" maxSpeed="40" guiShape="passenger"/>

        <route id="left_up" edges="E4 -E2 -E1 -E5"/>
        <route id="left_right" edges="E4 -E2 -E3 -E6"/>
        <route id="left_down" edges="E4 -E2 E0 -E7"/>

        <route id="right_up" edges="E6 E3 -E1 -E5"/>
        <route id="right_left" edges="E6 E3 E2 -E4"/>
        <route id="right_down" edges="E6 E3 E0 -E7"/>

        <route id="down_up" edges="E7 -E0 -E1 -E5"/>
        <route id="down_left" edges="E7 -E0 E2 -E4"/>
        <route id="down_right" edges="E7 -E0 -E3 -E6"/>

        <route id="up_down" edges="E5 E1 E0 -E7"/>
        <route id="up_left" edges="E5 E1 E2 -E4"/>
        <route id="up_right" edges="E5 E1 -E3 -E6"/>
    <vehicle id="up_right_0" type="vehicle.seat.leon" route="up_right" depart="1" />
    <vehicle id="down_left_1" type="vehicle.seat.leon" route="down_left" depart="1" />
    <vehicle id="down_right_2" type="vehicle.seat.leon" route="down_right" depart="4" />
    <vehicle id="up_down_3" type="vehicle.seat.leon" route="up_down" depart="7" />
    <vehicle id="left_up_4" type="vehicle.seat.leon" route="left_up" depart="13" />
    <vehicle id="right_down_5" type="vehicle.seat.leon" route="right_down" depart="18" />
    <vehicle id="left_up_6" type="vehicle.seat.leon" route="left_up" depart="25" />
    <vehicle id="up_down_7" type="vehicle.seat.leon" route="up_down" depart="29" />
    <vehicle id="up_down_8" type="vehicle.seat.leon" route="up_down" depart="30" />
    <vehicle id="right_up_9" type="vehicle.seat.leon" route="right_up" depart="31" />
    <vehicle id="up_left_10" type="vehicle.seat.leon" route="up_left" depart="35" />
    <vehicle id="up_right_11" type="vehicle.seat.leon" route="up_right" depart="36" />
    <vehicle id="down_up_12" type="vehicle.seat.leon" route="down_up" depart="41" />
    <vehicle id="up_left_13" type="vehicle.seat.leon" route="up_left" depart="53" />
    <vehicle id="down_left_14" type="vehicle.seat.leon" route="down_left" depart="59" />
    <vehicle id="right_up_15" type="vehicle.seat.leon" route="right_up" depart="60" />
    <vehicle id="down_left_16" type="vehicle.seat.leon" route="down_left" depart="75" />
    <vehicle id="right_left_17" type="vehicle.seat.leon" route="right_left" depart="76" />
    <vehicle id="up_left_18" type="vehicle.seat.leon" route="up_left" depart="78" />
    <vehicle id="up_right_19" type="vehicle.seat.leon" route="up_right" depart="81" />
    <vehicle id="up_left_20" type="vehicle.seat.leon" route="up_left" depart="83" />
    <vehicle id="up_down_21" type="vehicle.seat.leon" route="up_down" depart="88" />
    <vehicle id="down_right_22" type="vehicle.seat.leon" route="down_right" depart="88" />
    <vehicle id="down_up_23" type="vehicle.seat.leon" route="down_up" depart="93" />
    <vehicle id="up_down_24" type="vehicle.seat.leon" route="up_down" depart="99" />
    <!-- <vehicle id="down_up_25" type="vehicle.seat.leon" route="down_up" depart="100" /> -->
    <vehicle id="down_left_25" type="vehicle.seat.leon" route="down_up" depart="100" />
    <vehicle id="up_down_26" type="vehicle.seat.leon" route="up_down" depart="101" />
    <vehicle id="right_up_27" type="vehicle.seat.leon" route="right_up" depart="105" />
    <vehicle id="right_left_28" type="vehicle.seat.leon" route="right_left" depart="109" />
    <vehicle id="up_left_29" type="vehicle.seat.leon" route="up_left" depart="111" />
    <vehicle id="down_right_30" type="vehicle.seat.leon" route="down_right" depart="112" />
    <vehicle id="up_down_31" type="vehicle.seat.leon" route="up_down" depart="116" />
    <vehicle id="down_up_32" type="vehicle.seat.leon" route="down_up" depart="117" />
    <vehicle id="right_down_33" type="vehicle.seat.leon" route="right_down" depart="121" />
    <vehicle id="right_left_34" type="vehicle.seat.leon" route="right_left" depart="126" />
    <vehicle id="right_up_35" type="vehicle.seat.leon" route="right_up" depart="128" />
    <vehicle id="down_up_36" type="vehicle.seat.leon" route="down_up" depart="131" />
    <vehicle id="left_down_37" type="vehicle.seat.leon" route="left_down" depart="136" />
    <vehicle id="right_up_38" type="vehicle.seat.leon" route="right_up" depart="137" />
    <vehicle id="left_right_39" type="vehicle.seat.leon" route="left_right" depart="150" />
    <vehicle id="right_left_40" type="vehicle.seat.leon" route="right_left" depart="151" />
    <vehicle id="right_up_41" type="vehicle.seat.leon" route="right_up" depart="155" />
    <vehicle id="right_left_42" type="vehicle.seat.leon" route="right_left" depart="159" />
    <vehicle id="left_up_43" type="vehicle.seat.leon" route="left_up" depart="162" />
    <vehicle id="down_up_44" type="vehicle.seat.leon" route="down_up" depart="163" />
    <vehicle id="down_right_44" type="vehicle.seat.leon" route="down_up" depart="163" />
    <vehicle id="up_down_45" type="vehicle.seat.leon" route="up_down" depart="170" />
    <vehicle id="right_down_46" type="vehicle.seat.leon" route="right_down" depart="173" />
    <vehicle id="up_down_47" type="vehicle.seat.leon" route="up_down" depart="174" />
    <vehicle id="down_left_48" type="vehicle.seat.leon" route="down_left" depart="178" />
    <vehicle id="up_down_49" type="vehicle.seat.leon" route="up_down" depart="179" />
    <vehicle id="down_right_50" type="vehicle.seat.leon" route="down_right" depart="179" />
    <vehicle id="down_right_51" type="vehicle.seat.leon" route="down_right" depart="182" />
    <vehicle id="down_up_52" type="vehicle.seat.leon" route="down_up" depart="183" />
    <vehicle id="up_down_53" type="vehicle.seat.leon" route="up_down" depart="189" />
    <vehicle id="up_down_54" type="vehicle.seat.leon" route="up_down" depart="200" />
    <vehicle id="right_left_55" type="vehicle.seat.leon" route="right_left" depart="206" />
    <vehicle id="up_left_56" type="vehicle.seat.leon" route="up_left" depart="213" />
    <vehicle id="right_down_57" type="vehicle.seat.leon" route="right_down" depart="215" />
    <vehicle id="up_right_58" type="vehicle.seat.leon" route="up_right" depart="225" />
    <vehicle id="left_down_59" type="vehicle.seat.leon" route="left_down" depart="226" />
    <vehicle id="left_up_60" type="vehicle.seat.leon" route="left_up" depart="229" />
    <vehicle id="up_right_61" type="vehicle.seat.leon" route="up_right" depart="232" />
    <vehicle id="down_left_62" type="vehicle.seat.leon" route="down_left" depart="233" />
    <vehicle id="down_up_63" type="vehicle.seat.leon" route="down_up" depart="237" />
    <vehicle id="left_right_64" type="vehicle.seat.leon" route="left_right" depart="241" />
    <vehicle id="left_down_65" type="vehicle.seat.leon" route="left_down" depart="248" />
    <vehicle id="down_up_66" type="vehicle.seat.leon" route="down_up" depart="249" />
    <vehicle id="left_right_67" type="vehicle.seat.leon" route="left_right" depart="252" />
    <vehicle id="left_up_68" type="vehicle.seat.leon" route="left_up" depart="257" />
    <vehicle id="down_left_69" type="vehicle.seat.leon" route="down_left" depart="260" />
    <vehicle id="up_left_70" type="vehicle.seat.leon" route="up_left" depart="263" />
    <vehicle id="right_up_71" type="vehicle.seat.leon" route="right_up" depart="264" />
    <vehicle id="right_left_72" type="vehicle.seat.leon" route="right_left" depart="266" />
    <vehicle id="left_right_73" type="vehicle.seat.leon" route="left_right" depart="270" />
    <vehicle id="down_up_74" type="vehicle.seat.leon" route="down_up" depart="276" />
    <vehicle id="down_up_75" type="vehicle.seat.leon" route="down_up" depart="277" />
    <vehicle id="right_up_76" type="vehicle.seat.leon" route="right_up" depart="282" />
    <vehicle id="right_left_77" type="vehicle.seat.leon" route="right_left" depart="285" />
    <vehicle id="up_right_78" type="vehicle.seat.leon" route="up_right" depart="287" />
    <vehicle id="right_left_79" type="vehicle.seat.leon" route="right_left" depart="290" />
    <vehicle id="left_up_80" type="vehicle.seat.leon" route="left_up" depart="291" />
    <vehicle id="up_down_81" type="vehicle.seat.leon" route="up_down" depart="297" />
    <vehicle id="down_up_82" type="vehicle.seat.leon" route="down_up" depart="310" />
    <vehicle id="down_left_83" type="vehicle.seat.leon" route="down_left" depart="321" />
    <vehicle id="left_up_84" type="vehicle.seat.leon" route="left_up" depart="328" />
    <vehicle id="right_up_85" type="vehicle.seat.leon" route="right_up" depart="337" />
    <vehicle id="down_up_86" type="vehicle.seat.leon" route="down_up" depart="341" />
    <vehicle id="up_right_87" type="vehicle.seat.leon" route="up_right" depart="349" />
    <vehicle id="left_down_88" type="vehicle.seat.leon" route="left_down" depart="351" />
    <vehicle id="down_left_89" type="vehicle.seat.leon" route="down_left" depart="353" />
    <vehicle id="down_right_90" type="vehicle.seat.leon" route="down_right" depart="355" />
    <vehicle id="down_right_91" type="vehicle.seat.leon" route="down_right" depart="362" />
    <vehicle id="up_down_92" type="vehicle.seat.leon" route="up_down" depart="363" />
    <vehicle id="down_up_93" type="vehicle.seat.leon" route="down_up" depart="363" />
    <vehicle id="right_up_94" type="vehicle.seat.leon" route="right_up" depart="368" />
    <vehicle id="down_left_95" type="vehicle.seat.leon" route="down_left" depart="371" />
    <vehicle id="left_right_96" type="vehicle.seat.leon" route="left_right" depart="372" />
    <vehicle id="right_left_97" type="vehicle.seat.leon" route="right_left" depart="373" />
    <vehicle id="down_up_98" type="vehicle.seat.leon" route="down_up" depart="375" />
    <vehicle id="up_left_99" type="vehicle.seat.leon" route="up_left" depart="377" />
    <vehicle id="up_left_100" type="vehicle.seat.leon" route="up_left" depart="378" />
    <vehicle id="up_down_101" type="vehicle.seat.leon" route="up_down" depart="381" />
    <vehicle id="down_up_102" type="vehicle.seat.leon" route="down_up" depart="383" />
    <vehicle id="down_right_103" type="vehicle.seat.leon" route="down_right" depart="387" />
    <vehicle id="left_right_104" type="vehicle.seat.leon" route="left_right" depart="392" />
    <vehicle id="right_up_105" type="vehicle.seat.leon" route="right_up" depart="393" />
</routes>
