<?xml version="1.0" encoding="UTF-8"?>

<!-- generated on 08/09/21 14:01:24 by Eclipse SUMO sumo Version v1_8_0+1925-6bf04e0fef
-->

<configuration xmlns:xsi="http://www.w3.org/2001/XMLSchema-instance" xsi:noNamespaceSchemaLocation="http://sumo.dlr.de/xsd/sumoConfiguration.xsd">

    <input>
        <net-file value="../map/simple_separate_10m.net.xml"/>
        <route-files value="../route/08-27-19-10-01000-0.09-train_10m_35m-7.rou.xml"/>
    </input>

    <processing>
        <ignore-route-errors value="true"/>
    </processing>

    <routing>
        <device.rerouting.adaptation-steps value="18"/>
        <device.rerouting.adaptation-interval value="10"/>
    </routing>

    <report>
        <verbose value="true"/>
        <duration-log.statistics value="true"/>
        <no-step-log value="true"/>
    </report>

    <gui_only>
        <gui-settings-file value="simple.view.xml"/>
    </gui_only>

</configuration>
